
*** ChampSim Multicore Out-of-Order Simulator ***

Warmup Instructions: 30000000
Simulation Instructions: 30000000
Number of CPUs: 1
LLC sets: 32768
LLC ways: 16
Off-chip DRAM Size: 4096 MB Channels: 1 Width: 64-bit Data Rate: 3200 MT/s

CPU 0 runs /home/harshit/Documents/Projects/CS230/CS230-Project/ChampSim/dpc3_traces/kissat-inc-high-30K-1802B.champsimtrace.xz
CPU 0 Bimodal branch predictor
Initialize SHIP state
Assign rand_sets[0]: 16838  LLC: 32768
rand_sets[0]: 16838
Assign rand_sets[1]: 5758  LLC: 32768
rand_sets[1]: 5758
Assign rand_sets[2]: 10113  LLC: 32768
rand_sets[2]: 10113
Assign rand_sets[3]: 17515  LLC: 32768
rand_sets[3]: 17515
Assign rand_sets[4]: 31051  LLC: 32768
rand_sets[4]: 31051
Assign rand_sets[5]: 5627  LLC: 32768
rand_sets[5]: 5627
Assign rand_sets[6]: 23010  LLC: 32768
rand_sets[6]: 23010
Assign rand_sets[7]: 7419  LLC: 32768
rand_sets[7]: 7419
Assign rand_sets[8]: 16212  LLC: 32768
rand_sets[8]: 16212
Assign rand_sets[9]: 4086  LLC: 32768
rand_sets[9]: 4086
Assign rand_sets[10]: 2749  LLC: 32768
rand_sets[10]: 2749
Assign rand_sets[11]: 12767  LLC: 32768
rand_sets[11]: 12767
Assign rand_sets[12]: 9084  LLC: 32768
rand_sets[12]: 9084
Assign rand_sets[13]: 12060  LLC: 32768
rand_sets[13]: 12060
Assign rand_sets[14]: 32225  LLC: 32768
rand_sets[14]: 32225
Assign rand_sets[15]: 17543  LLC: 32768
rand_sets[15]: 17543
Assign rand_sets[16]: 25089  LLC: 32768
rand_sets[16]: 25089
Assign rand_sets[17]: 21183  LLC: 32768
rand_sets[17]: 21183
Assign rand_sets[18]: 25137  LLC: 32768
rand_sets[18]: 25137
Assign rand_sets[19]: 25566  LLC: 32768
rand_sets[19]: 25566
Assign rand_sets[20]: 26966  LLC: 32768
rand_sets[20]: 26966
Assign rand_sets[21]: 4978  LLC: 32768
rand_sets[21]: 4978
Assign rand_sets[22]: 20495  LLC: 32768
rand_sets[22]: 20495
Assign rand_sets[23]: 10311  LLC: 32768
rand_sets[23]: 10311
Assign rand_sets[24]: 11367  LLC: 32768
rand_sets[24]: 11367
Assign rand_sets[25]: 30054  LLC: 32768
rand_sets[25]: 30054
Assign rand_sets[26]: 17031  LLC: 32768
rand_sets[26]: 17031
Assign rand_sets[27]: 13145  LLC: 32768
rand_sets[27]: 13145
Assign rand_sets[28]: 19882  LLC: 32768
rand_sets[28]: 19882
Assign rand_sets[29]: 25736  LLC: 32768
rand_sets[29]: 25736
Assign rand_sets[30]: 30524  LLC: 32768
rand_sets[30]: 30524
Assign rand_sets[31]: 28505  LLC: 32768
rand_sets[31]: 28505
Assign rand_sets[32]: 28394  LLC: 32768
rand_sets[32]: 28394
Assign rand_sets[33]: 22102  LLC: 32768
rand_sets[33]: 22102
Assign rand_sets[34]: 24851  LLC: 32768
rand_sets[34]: 24851
Assign rand_sets[35]: 19067  LLC: 32768
rand_sets[35]: 19067
Assign rand_sets[36]: 12754  LLC: 32768
rand_sets[36]: 12754
Assign rand_sets[37]: 11653  LLC: 32768
rand_sets[37]: 11653
Assign rand_sets[38]: 6561  LLC: 32768
rand_sets[38]: 6561
Assign rand_sets[39]: 27096  LLC: 32768
rand_sets[39]: 27096
Assign rand_sets[40]: 13628  LLC: 32768
rand_sets[40]: 13628
Assign rand_sets[41]: 15188  LLC: 32768
rand_sets[41]: 15188
Assign rand_sets[42]: 32085  LLC: 32768
rand_sets[42]: 32085
Assign rand_sets[43]: 4143  LLC: 32768
rand_sets[43]: 4143
Assign rand_sets[44]: 6967  LLC: 32768
rand_sets[44]: 6967
Assign rand_sets[45]: 31406  LLC: 32768
rand_sets[45]: 31406
Assign rand_sets[46]: 24165  LLC: 32768
rand_sets[46]: 24165
Assign rand_sets[47]: 13403  LLC: 32768
rand_sets[47]: 13403
Assign rand_sets[48]: 25562  LLC: 32768
rand_sets[48]: 25562
Assign rand_sets[49]: 24834  LLC: 32768
rand_sets[49]: 24834
Assign rand_sets[50]: 31353  LLC: 32768
rand_sets[50]: 31353
Assign rand_sets[51]: 920  LLC: 32768
rand_sets[51]: 920
Assign rand_sets[52]: 10444  LLC: 32768
rand_sets[52]: 10444
Assign rand_sets[53]: 24803  LLC: 32768
rand_sets[53]: 24803
Assign rand_sets[54]: 7962  LLC: 32768
rand_sets[54]: 7962
Assign rand_sets[55]: 19318  LLC: 32768
rand_sets[55]: 19318
Assign rand_sets[56]: 1422  LLC: 32768
rand_sets[56]: 1422
Assign rand_sets[57]: 31327  LLC: 32768
rand_sets[57]: 31327
Assign rand_sets[58]: 10457  LLC: 32768
rand_sets[58]: 10457
Assign rand_sets[59]: 1945  LLC: 32768
rand_sets[59]: 1945
Assign rand_sets[60]: 14479  LLC: 32768
rand_sets[60]: 14479
Assign rand_sets[61]: 29983  LLC: 32768
rand_sets[61]: 29983
Assign rand_sets[62]: 18751  LLC: 32768
rand_sets[62]: 18751
Assign rand_sets[63]: 3894  LLC: 32768
rand_sets[63]: 3894
Assign rand_sets[64]: 18670  LLC: 32768
rand_sets[64]: 18670
Assign rand_sets[65]: 8259  LLC: 32768
rand_sets[65]: 8259
Assign rand_sets[66]: 16248  LLC: 32768
rand_sets[66]: 16248
Assign rand_sets[67]: 7757  LLC: 32768
rand_sets[67]: 7757
Assign rand_sets[68]: 15629  LLC: 32768
rand_sets[68]: 15629
Assign rand_sets[69]: 13306  LLC: 32768
rand_sets[69]: 13306
Assign rand_sets[70]: 28606  LLC: 32768
rand_sets[70]: 28606
Assign rand_sets[71]: 13990  LLC: 32768
rand_sets[71]: 13990
Assign rand_sets[72]: 11738  LLC: 32768
rand_sets[72]: 11738
Assign rand_sets[73]: 12516  LLC: 32768
rand_sets[73]: 12516
Assign rand_sets[74]: 1414  LLC: 32768
rand_sets[74]: 1414
Assign rand_sets[75]: 5262  LLC: 32768
rand_sets[75]: 5262
Assign rand_sets[76]: 17116  LLC: 32768
rand_sets[76]: 17116
Assign rand_sets[77]: 22825  LLC: 32768
rand_sets[77]: 22825
Assign rand_sets[78]: 3181  LLC: 32768
rand_sets[78]: 3181
Assign rand_sets[79]: 13134  LLC: 32768
rand_sets[79]: 13134
Assign rand_sets[80]: 25343  LLC: 32768
rand_sets[80]: 25343
Assign rand_sets[81]: 8022  LLC: 32768
rand_sets[81]: 8022
Assign rand_sets[82]: 11233  LLC: 32768
rand_sets[82]: 11233
Assign rand_sets[83]: 7536  LLC: 32768
rand_sets[83]: 7536
Assign rand_sets[84]: 9760  LLC: 32768
rand_sets[84]: 9760
Assign rand_sets[85]: 9979  LLC: 32768
rand_sets[85]: 9979
Assign rand_sets[86]: 29071  LLC: 32768
rand_sets[86]: 29071
Assign rand_sets[87]: 1201  LLC: 32768
rand_sets[87]: 1201
Assign rand_sets[88]: 21336  LLC: 32768
rand_sets[88]: 21336
Assign rand_sets[89]: 13061  LLC: 32768
rand_sets[89]: 13061
Assign rand_sets[90]: 22160  LLC: 32768
rand_sets[90]: 22160
Assign rand_sets[91]: 24005  LLC: 32768
rand_sets[91]: 24005
Assign rand_sets[92]: 30729  LLC: 32768
rand_sets[92]: 30729
Assign rand_sets[93]: 7644  LLC: 32768
rand_sets[93]: 7644
Assign rand_sets[94]: 27475  LLC: 32768
rand_sets[94]: 27475
Assign rand_sets[95]: 31693  LLC: 32768
rand_sets[95]: 31693
Assign rand_sets[96]: 25514  LLC: 32768
rand_sets[96]: 25514
Assign rand_sets[97]: 14139  LLC: 32768
rand_sets[97]: 14139
Assign rand_sets[98]: 22088  LLC: 32768
rand_sets[98]: 22088
Assign rand_sets[99]: 26521  LLC: 32768
rand_sets[99]: 26521
Assign rand_sets[100]: 5202  LLC: 32768
rand_sets[100]: 5202
Assign rand_sets[101]: 9171  LLC: 32768
rand_sets[101]: 9171
Assign rand_sets[102]: 4434  LLC: 32768
rand_sets[102]: 4434
Assign rand_sets[103]: 28317  LLC: 32768
rand_sets[103]: 28317
Assign rand_sets[104]: 24582  LLC: 32768
rand_sets[104]: 24582
Assign rand_sets[105]: 6815  LLC: 32768
rand_sets[105]: 6815
Assign rand_sets[106]: 4586  LLC: 32768
rand_sets[106]: 4586
Assign rand_sets[107]: 9653  LLC: 32768
rand_sets[107]: 9653
Assign rand_sets[108]: 26306  LLC: 32768
rand_sets[108]: 26306
Assign rand_sets[109]: 7174  LLC: 32768
rand_sets[109]: 7174
Assign rand_sets[110]: 18451  LLC: 32768
rand_sets[110]: 18451
Assign rand_sets[111]: 23448  LLC: 32768
rand_sets[111]: 23448
Assign rand_sets[112]: 6473  LLC: 32768
rand_sets[112]: 6473
Assign rand_sets[113]: 32434  LLC: 32768
rand_sets[113]: 32434
Assign rand_sets[114]: 8193  LLC: 32768
rand_sets[114]: 8193
Assign rand_sets[115]: 14110  LLC: 32768
rand_sets[115]: 14110
Assign rand_sets[116]: 24748  LLC: 32768
rand_sets[116]: 24748
Assign rand_sets[117]: 28210  LLC: 32768
rand_sets[117]: 28210
Assign rand_sets[118]: 29320  LLC: 32768
rand_sets[118]: 29320
Assign rand_sets[119]: 32049  LLC: 32768
rand_sets[119]: 32049
Assign rand_sets[120]: 12956  LLC: 32768
rand_sets[120]: 12956
Assign rand_sets[121]: 14162  LLC: 32768
rand_sets[121]: 14162
Assign rand_sets[122]: 4166  LLC: 32768
rand_sets[122]: 4166
Assign rand_sets[123]: 14997  LLC: 32768
rand_sets[123]: 14997
Assign rand_sets[124]: 7793  LLC: 32768
rand_sets[124]: 7793
Assign rand_sets[125]: 32310  LLC: 32768
rand_sets[125]: 32310
Assign rand_sets[126]: 21391  LLC: 32768
rand_sets[126]: 21391
Assign rand_sets[127]: 19799  LLC: 32768
rand_sets[127]: 19799
Assign rand_sets[128]: 7926  LLC: 32768
rand_sets[128]: 7926
Assign rand_sets[129]: 14905  LLC: 32768
rand_sets[129]: 14905
Assign rand_sets[130]: 25885  LLC: 32768
rand_sets[130]: 25885
Assign rand_sets[131]: 2582  LLC: 32768
rand_sets[131]: 2582
Assign rand_sets[132]: 15610  LLC: 32768
rand_sets[132]: 15610
Assign rand_sets[133]: 5000  LLC: 32768
rand_sets[133]: 5000
Assign rand_sets[134]: 8052  LLC: 32768
rand_sets[134]: 8052
Assign rand_sets[135]: 30965  LLC: 32768
rand_sets[135]: 30965
Assign rand_sets[136]: 20120  LLC: 32768
rand_sets[136]: 20120
Assign rand_sets[137]: 32380  LLC: 32768
rand_sets[137]: 32380
Assign rand_sets[138]: 15639  LLC: 32768
rand_sets[138]: 15639
Assign rand_sets[139]: 26204  LLC: 32768
rand_sets[139]: 26204
Assign rand_sets[140]: 24385  LLC: 32768
rand_sets[140]: 24385
Assign rand_sets[141]: 12475  LLC: 32768
rand_sets[141]: 12475
Assign rand_sets[142]: 15725  LLC: 32768
rand_sets[142]: 15725
Assign rand_sets[143]: 17265  LLC: 32768
rand_sets[143]: 17265
Assign rand_sets[144]: 3214  LLC: 32768
rand_sets[144]: 3214
Assign rand_sets[145]: 19471  LLC: 32768
rand_sets[145]: 19471
Assign rand_sets[146]: 11376  LLC: 32768
rand_sets[146]: 11376
Assign rand_sets[147]: 4697  LLC: 32768
rand_sets[147]: 4697
Assign rand_sets[148]: 25543  LLC: 32768
rand_sets[148]: 25543
Assign rand_sets[149]: 23297  LLC: 32768
rand_sets[149]: 23297
Assign rand_sets[150]: 14619  LLC: 32768
rand_sets[150]: 14619
Assign rand_sets[151]: 23087  LLC: 32768
rand_sets[151]: 23087
Assign rand_sets[152]: 3123  LLC: 32768
rand_sets[152]: 3123
Assign rand_sets[153]: 31549  LLC: 32768
rand_sets[153]: 31549
Assign rand_sets[154]: 18065  LLC: 32768
rand_sets[154]: 18065
Assign rand_sets[155]: 24256  LLC: 32768
rand_sets[155]: 24256
Assign rand_sets[156]: 18973  LLC: 32768
rand_sets[156]: 18973
Assign rand_sets[157]: 20901  LLC: 32768
rand_sets[157]: 20901
Assign rand_sets[158]: 25613  LLC: 32768
rand_sets[158]: 25613
Assign rand_sets[159]: 6157  LLC: 32768
rand_sets[159]: 6157
Assign rand_sets[160]: 9899  LLC: 32768
rand_sets[160]: 9899
Assign rand_sets[161]: 9267  LLC: 32768
rand_sets[161]: 9267
Assign rand_sets[162]: 22413  LLC: 32768
rand_sets[162]: 22413
Assign rand_sets[163]: 9598  LLC: 32768
rand_sets[163]: 9598
Assign rand_sets[164]: 18526  LLC: 32768
rand_sets[164]: 18526
Assign rand_sets[165]: 13711  LLC: 32768
rand_sets[165]: 13711
Assign rand_sets[166]: 10046  LLC: 32768
rand_sets[166]: 10046
Assign rand_sets[167]: 14566  LLC: 32768
rand_sets[167]: 14566
Assign rand_sets[168]: 18536  LLC: 32768
rand_sets[168]: 18536
Assign rand_sets[169]: 15988  LLC: 32768
rand_sets[169]: 15988
Assign rand_sets[170]: 19878  LLC: 32768
rand_sets[170]: 19878
Assign rand_sets[171]: 13626  LLC: 32768
rand_sets[171]: 13626
Assign rand_sets[172]: 4273  LLC: 32768
rand_sets[172]: 4273
Assign rand_sets[173]: 8387  LLC: 32768
rand_sets[173]: 8387
Assign rand_sets[174]: 1171  LLC: 32768
rand_sets[174]: 1171
Assign rand_sets[175]: 32017  LLC: 32768
rand_sets[175]: 32017
Assign rand_sets[176]: 3752  LLC: 32768
rand_sets[176]: 3752
Assign rand_sets[177]: 12388  LLC: 32768
rand_sets[177]: 12388
Assign rand_sets[178]: 21191  LLC: 32768
rand_sets[178]: 21191
Assign rand_sets[179]: 11483  LLC: 32768
rand_sets[179]: 11483
Assign rand_sets[180]: 18122  LLC: 32768
rand_sets[180]: 18122
Assign rand_sets[181]: 11744  LLC: 32768
rand_sets[181]: 11744
Assign rand_sets[182]: 18528  LLC: 32768
rand_sets[182]: 18528
Assign rand_sets[183]: 15585  LLC: 32768
rand_sets[183]: 15585
Assign rand_sets[184]: 5363  LLC: 32768
rand_sets[184]: 5363
Assign rand_sets[185]: 20159  LLC: 32768
rand_sets[185]: 20159
Assign rand_sets[186]: 5641  LLC: 32768
rand_sets[186]: 5641
Assign rand_sets[187]: 18176  LLC: 32768
rand_sets[187]: 18176
Assign rand_sets[188]: 9575  LLC: 32768
rand_sets[188]: 9575
Assign rand_sets[189]: 28578  LLC: 32768
rand_sets[189]: 28578
Assign rand_sets[190]: 27363  LLC: 32768
rand_sets[190]: 27363
Assign rand_sets[191]: 27685  LLC: 32768
rand_sets[191]: 27685
Assign rand_sets[192]: 29344  LLC: 32768
rand_sets[192]: 29344
Assign rand_sets[193]: 19489  LLC: 32768
rand_sets[193]: 19489
Assign rand_sets[194]: 17713  LLC: 32768
rand_sets[194]: 17713
Assign rand_sets[195]: 5511  LLC: 32768
rand_sets[195]: 5511
Assign rand_sets[196]: 21461  LLC: 32768
rand_sets[196]: 21461
Assign rand_sets[197]: 22626  LLC: 32768
rand_sets[197]: 22626
Assign rand_sets[198]: 8645  LLC: 32768
rand_sets[198]: 8645
Assign rand_sets[199]: 3496  LLC: 32768
rand_sets[199]: 3496
Assign rand_sets[200]: 26703  LLC: 32768
rand_sets[200]: 26703
Assign rand_sets[201]: 6270  LLC: 32768
rand_sets[201]: 6270
Assign rand_sets[202]: 13870  LLC: 32768
rand_sets[202]: 13870
Assign rand_sets[203]: 11529  LLC: 32768
rand_sets[203]: 11529
Assign rand_sets[204]: 27499  LLC: 32768
rand_sets[204]: 27499
Assign rand_sets[205]: 4500  LLC: 32768
rand_sets[205]: 4500
Assign rand_sets[206]: 8607  LLC: 32768
rand_sets[206]: 8607
Assign rand_sets[207]: 5808  LLC: 32768
rand_sets[207]: 5808
Assign rand_sets[208]: 15725  LLC: 32768
Assign rand_sets[208]: 12457  LLC: 32768
rand_sets[208]: 12457
Assign rand_sets[209]: 16542  LLC: 32768
rand_sets[209]: 16542
Assign rand_sets[210]: 16474  LLC: 32768
rand_sets[210]: 16474
Assign rand_sets[211]: 11531  LLC: 32768
rand_sets[211]: 11531
Assign rand_sets[212]: 17222  LLC: 32768
rand_sets[212]: 17222
Assign rand_sets[213]: 3952  LLC: 32768
rand_sets[213]: 3952
Assign rand_sets[214]: 17024  LLC: 32768
rand_sets[214]: 17024
Assign rand_sets[215]: 19894  LLC: 32768
rand_sets[215]: 19894
Assign rand_sets[216]: 24015  LLC: 32768
rand_sets[216]: 24015
Assign rand_sets[217]: 18247  LLC: 32768
rand_sets[217]: 18247
Assign rand_sets[218]: 11276  LLC: 32768
rand_sets[218]: 11276
Assign rand_sets[219]: 26278  LLC: 32768
rand_sets[219]: 26278
Assign rand_sets[220]: 19365  LLC: 32768
rand_sets[220]: 19365
Assign rand_sets[221]: 8746  LLC: 32768
rand_sets[221]: 8746
Assign rand_sets[222]: 21976  LLC: 32768
rand_sets[222]: 21976
Assign rand_sets[223]: 18092  LLC: 32768
rand_sets[223]: 18092
Assign rand_sets[224]: 25851  LLC: 32768
rand_sets[224]: 25851
Assign rand_sets[225]: 29088  LLC: 32768
rand_sets[225]: 29088
Assign rand_sets[226]: 29163  LLC: 32768
rand_sets[226]: 29163
Assign rand_sets[227]: 2231  LLC: 32768
rand_sets[227]: 2231
Assign rand_sets[228]: 26233  LLC: 32768
rand_sets[228]: 26233
Assign rand_sets[229]: 29732  LLC: 32768
rand_sets[229]: 29732
Assign rand_sets[230]: 21106  LLC: 32768
rand_sets[230]: 21106
Assign rand_sets[231]: 5411  LLC: 32768
rand_sets[231]: 5411
Assign rand_sets[232]: 9874  LLC: 32768
rand_sets[232]: 9874
Assign rand_sets[233]: 5448  LLC: 32768
rand_sets[233]: 5448
Assign rand_sets[234]: 9344  LLC: 32768
rand_sets[234]: 9344
Assign rand_sets[235]: 27589  LLC: 32768
rand_sets[235]: 27589
Assign rand_sets[236]: 17574  LLC: 32768
rand_sets[236]: 17574
Assign rand_sets[237]: 1191  LLC: 32768
rand_sets[237]: 1191
Assign rand_sets[238]: 6789  LLC: 32768
rand_sets[238]: 6789
Assign rand_sets[239]: 695  LLC: 32768
rand_sets[239]: 695
Assign rand_sets[240]: 11735  LLC: 32768
rand_sets[240]: 11735
Assign rand_sets[241]: 20364  LLC: 32768
rand_sets[241]: 20364
Assign rand_sets[242]: 17040  LLC: 32768
rand_sets[242]: 17040
Assign rand_sets[243]: 17892  LLC: 32768
rand_sets[243]: 17892
Assign rand_sets[244]: 5035  LLC: 32768
rand_sets[244]: 5035
Assign rand_sets[245]: 26979  LLC: 32768
rand_sets[245]: 26979
Assign rand_sets[246]: 1092  LLC: 32768
rand_sets[246]: 1092
Assign rand_sets[247]: 850  LLC: 32768
rand_sets[247]: 850
Assign rand_sets[248]: 12390  LLC: 32768
rand_sets[248]: 12390
Assign rand_sets[249]: 20195  LLC: 32768
rand_sets[249]: 20195
Assign rand_sets[250]: 668  LLC: 32768
rand_sets[250]: 668
Assign rand_sets[251]: 20531  LLC: 32768
rand_sets[251]: 20531
Assign rand_sets[252]: 29989  LLC: 32768
rand_sets[252]: 29989
Assign rand_sets[253]: 12281  LLC: 32768
rand_sets[253]: 12281
Assign rand_sets[254]: 23902  LLC: 32768
rand_sets[254]: 23902
Assign rand_sets[255]: 12970  LLC: 32768
rand_sets[255]: 12970
Heartbeat CPU 0 instructions: 10000001 cycles: 4044777 heartbeat IPC: 2.47232 cumulative IPC: 2.47232 (Simulation time: 0 hr 0 min 13 sec) 
Heartbeat CPU 0 instructions: 20000001 cycles: 8506418 heartbeat IPC: 2.24133 cumulative IPC: 2.35117 (Simulation time: 0 hr 0 min 27 sec) 
Heartbeat CPU 0 instructions: 30000000 cycles: 13140698 heartbeat IPC: 2.15783 cumulative IPC: 2.28298 (Simulation time: 0 hr 0 min 41 sec) 

Warmup complete CPU 0 instructions: 30000002 cycles: 13140699 (Simulation time: 0 hr 0 min 41 sec) 

Heartbeat CPU 0 instructions: 40000000 cycles: 42159725 heartbeat IPC: 0.344601 cumulative IPC: 0.344601 (Simulation time: 0 hr 0 min 54 sec) 
Heartbeat CPU 0 instructions: 50000002 cycles: 70813274 heartbeat IPC: 0.348997 cumulative IPC: 0.346785 (Simulation time: 0 hr 1 min 8 sec) 
Heartbeat CPU 0 instructions: 60000001 cycles: 98516144 heartbeat IPC: 0.360973 cumulative IPC: 0.351389 (Simulation time: 0 hr 1 min 22 sec) 
Finished CPU 0 instructions: 30000003 cycles: 85375446 cumulative IPC: 0.351389 (Simulation time: 0 hr 1 min 22 sec) 

ChampSim completed all CPUs

Region of Interest Statistics

CPU 0 cumulative IPC: 0.351389 instructions: 30000003 cycles: 85375446
L1D TOTAL     ACCESS:   10235915  HIT:    9680766  MISS:     555149
L1D LOAD      ACCESS:    5762189  HIT:    5212034  MISS:     550155
L1D RFO       ACCESS:    4473726  HIT:    4468732  MISS:       4994
L1D PREFETCH  ACCESS:          0  HIT:          0  MISS:          0
L1D WRITEBACK ACCESS:          0  HIT:          0  MISS:          0
L1D PREFETCH  REQUESTED:          0  ISSUED:          0  USEFUL:          0  USELESS:          0
L1D AVERAGE MISS LATENCY: 145.648 cycles
L1I TOTAL     ACCESS:    5645338  HIT:    5645338  MISS:          0
L1I LOAD      ACCESS:    5645338  HIT:    5645338  MISS:          0
L1I RFO       ACCESS:          0  HIT:          0  MISS:          0
L1I PREFETCH  ACCESS:          0  HIT:          0  MISS:          0
L1I WRITEBACK ACCESS:          0  HIT:          0  MISS:          0
L1I PREFETCH  REQUESTED:          0  ISSUED:          0  USEFUL:          0  USELESS:          0
L1I AVERAGE MISS LATENCY: -nan cycles
L2C TOTAL     ACCESS:     876187  HIT:     335925  MISS:     540262
L2C LOAD      ACCESS:     550154  HIT:      14890  MISS:     535264
L2C RFO       ACCESS:       4994  HIT:          0  MISS:       4994
L2C PREFETCH  ACCESS:          0  HIT:          0  MISS:          0
L2C WRITEBACK ACCESS:     321039  HIT:     321035  MISS:          4
L2C PREFETCH  REQUESTED:          0  ISSUED:          0  USEFUL:          0  USELESS:          0
L2C AVERAGE MISS LATENCY: 120.058 cycles
LLC TOTAL     ACCESS:     851224  HIT:     585923  MISS:     265301
LLC LOAD      ACCESS:     535263  HIT:     281055  MISS:     254208
LLC RFO       ACCESS:       4994  HIT:          1  MISS:       4993
LLC PREFETCH  ACCESS:          0  HIT:          0  MISS:          0
LLC WRITEBACK ACCESS:     310967  HIT:     304867  MISS:       6100
LLC PREFETCH  REQUESTED:          0  ISSUED:          0  USEFUL:          0  USELESS:          0
LLC AVERAGE MISS LATENCY: 166.09 cycles
Major fault: 0 Minor fault: 33316

DRAM Statistics
 CHANNEL 0
 RQ ROW_BUFFER_HIT:      16547  ROW_BUFFER_MISS:     242654
 DBUS_CONGESTED:      30789
 WQ ROW_BUFFER_HIT:       6926  ROW_BUFFER_MISS:      58466  FULL:          0

 AVG_CONGESTED_CYCLE: 5

CPU 0 Branch Prediction Accuracy: 94.4124% MPKI: 9.227 Average ROB Occupancy at Mispredict: 75.0085

Branch types
NOT_BRANCH: 25045705 83.4857%
BRANCH_DIRECT_JUMP: 560396 1.86799%
BRANCH_INDIRECT: 0 0%
BRANCH_CONDITIONAL: 3395579 11.3186%
BRANCH_DIRECT_CALL: 498997 1.66332%
BRANCH_INDIRECT_CALL: 0 0%
BRANCH_RETURN: 498997 1.66332%
BRANCH_OTHER: 0 0%

